<?xml version="1.0" encoding="UTF-8"?>

<!-- generated on Thu Aug 15 18:28:58 2019 by Eclipse SUMO netedit Version 1.2.0
<configuration xmlns:xsi="http://www.w3.org/2001/XMLSchema-instance" xsi:noNamespaceSchemaLocation="http://sumo.dlr.de/xsd/netconvertConfiguration.xsd">

    <input>
        <sumo-net-file value="/Users/joyce@intern.sidewalklabs.com/Documents/sumo-test/toronto/toronto-netedit.net.xml"/>
    </input>

    <output>
        <output-file value="/Users/joyce@intern.sidewalklabs.com/Documents/sumo-test/toronto/toronto-netedit.net.xml"/>
        <plain-output-prefix value="/Users/joyce@intern.sidewalklabs.com/Documents/sumo-test/toronto/toronto-netedit"/>
    </output>

    <processing>
        <geometry.max-grade.fix value="false"/>
        <offset.disable-normalization value="true"/>
        <lefthand value="false"/>
    </processing>

    <junctions>
        <no-internal-links value="false"/>
        <no-turnarounds value="true"/>
        <junctions.corner-detail value="5"/>
        <junctions.limit-turn-speed value="5.5"/>
        <rectangular-lane-cut value="false"/>
    </junctions>

    <pedestrian>
        <walkingareas value="true"/>
    </pedestrian>

</configuration>
-->

<types version="1.1" xmlns:xsi="http://www.w3.org/2001/XMLSchema-instance" xsi:noNamespaceSchemaLocation="http://sumo.dlr.de/xsd/types_file.xsd">
    <type id="accessway" numLanes="3" speed="6"/> 
    <type id="boulevard" numLanes="5" speed="11.15"/>
    <type id="laneway" speed="1.5" allow="pedestrian"/>
    <type id="transitway" numLanes="4" speed="11.15"/>

</types>
