<?xml version="1.0" encoding="UTF-8"?>

<!-- generated on Mon Aug 26 17:53:04 2019 by Eclipse SUMO netconvert Version 1.2.0
<configuration xmlns:xsi="http://www.w3.org/2001/XMLSchema-instance" xsi:noNamespaceSchemaLocation="http://sumo.dlr.de/xsd/netconvertConfiguration.xsd">

    <input>
        <node-files value="bau-inputs/bau.nod.xml"/>
        <edge-files value="bau-inputs/bau.edg.xml"/>
        <type-files value="bau-inputs/bau.typ.xml"/>
    </input>

    <output>
        <output-file value="bau.net.xml"/>
    </output>

    <junctions>
        <no-turnarounds value="true"/>
    </junctions>

    <pedestrian>
        <crossings.guess value="true"/>
    </pedestrian>

</configuration>
-->

<net version="1.1" junctionCornerDetail="5" walkingareas="true" limitTurnSpeed="5.50" xmlns:xsi="http://www.w3.org/2001/XMLSchema-instance" xsi:noNamespaceSchemaLocation="http://sumo.dlr.de/xsd/net_file.xsd">

    <location netOffset="450.00,220.00" convBoundary="0.00,0.00,1000.00,590.00" origBoundary="-10000000000.00,-10000000000.00,10000000000.00,10000000000.00" projParameter="!"/>

    <type id="collector" numLanes="2" speed="11.15"/>
    <type id="local" numLanes="3" speed="6.70"/>
    <type id="major_arterial" numLanes="4" speed="17.80"/>
    <type id="minor_arterial" numLanes="3" speed="15.60"/>

    <edge id=":A_NS_1_w0" function="walkingarea">
        <lane id=":A_NS_1_w0_0" index="0" allow="pedestrian" speed="1.00" length="15.00" width="3.00" shape="237.00,590.00 234.00,590.00 252.00,590.00 249.00,590.00"/>
    </edge>
    <edge id=":A_NS_1_X_w0" function="walkingarea">
        <lane id=":A_NS_1_X_w0_0" index="0" allow="pedestrian" speed="1.00" length="15.00" width="3.00" shape="249.00,0.00 252.00,0.00 234.00,0.00 237.00,0.00"/>
    </edge>
    <edge id=":A_NS_2_w0" function="walkingarea">
        <lane id=":A_NS_2_w0_0" index="0" allow="pedestrian" speed="1.00" length="15.00" width="3.00" shape="460.00,590.00 457.00,590.00 475.00,590.00 472.00,590.00"/>
    </edge>
    <edge id=":A_NS_2_X_w0" function="walkingarea">
        <lane id=":A_NS_2_X_w0_0" index="0" allow="pedestrian" speed="1.00" length="15.00" width="3.00" shape="472.00,0.00 475.00,0.00 457.00,0.00 460.00,0.00"/>
    </edge>
    <edge id=":A_NS_3_w0" function="walkingarea">
        <lane id=":A_NS_3_w0_0" index="0" allow="pedestrian" speed="1.00" length="15.00" width="3.00" shape="669.00,590.00 666.00,590.00 684.00,590.00 681.00,590.00"/>
    </edge>
    <edge id=":A_NS_3_X_w0" function="walkingarea">
        <lane id=":A_NS_3_X_w0_0" index="0" allow="pedestrian" speed="1.00" length="15.00" width="3.00" shape="681.00,0.00 684.00,0.00 666.00,0.00 669.00,0.00"/>
    </edge>
    <edge id=":B_D1_w0" function="walkingarea">
        <lane id=":B_D1_w0_0" index="0" allow="pedestrian" speed="1.00" length="32.00" width="2.00" shape="813.56,585.94 811.63,585.40 844.37,594.60 842.44,594.06"/>
    </edge>
    <edge id=":B_EW_0_w0" function="walkingarea">
        <lane id=":B_EW_0_w0_0" index="0" allow="pedestrian" speed="1.00" length="32.00" width="2.00" shape="0.00,70.00 0.00,68.00 0.00,102.00 0.00,100.00"/>
    </edge>
    <edge id=":B_EW_1_0" function="internal">
        <lane id=":B_EW_1_0_0" index="0" disallow="tram bicycle pedestrian" speed="7.36" length="6.81" width="5.00" shape="240.00,103.50 239.53,100.88 238.12,99.00 236.50,98.22"/>
    </edge>
    <edge id=":B_EW_1_1" function="internal">
        <lane id=":B_EW_1_1_0" index="0" disallow="tram bicycle pedestrian" speed="11.15" length="37.00" width="6.00" shape="240.00,103.50 240.00,66.50"/>
    </edge>
    <edge id=":B_EW_1_2" function="internal">
        <lane id=":B_EW_1_2_0" index="0" disallow="tram bicycle pedestrian" speed="11.24" length="15.22" width="5.00" shape="240.00,103.50 240.84,94.31 243.00,88.72"/>
    </edge>
    <edge id=":B_EW_1_16" function="internal">
        <lane id=":B_EW_1_16_0" index="0" disallow="tram bicycle pedestrian" speed="7.36" length="4.10" width="5.00" shape="236.50,98.22 235.78,97.88 232.50,97.50"/>
    </edge>
    <edge id=":B_EW_1_17" function="internal">
        <lane id=":B_EW_1_17_0" index="0" disallow="tram bicycle pedestrian" speed="11.24" length="12.86" width="5.00" shape="243.00,88.72 243.38,87.75 247.59,83.81 253.50,82.50"/>
    </edge>
    <edge id=":B_EW_1_3" function="internal">
        <lane id=":B_EW_1_3_0" index="0" disallow="tram bicycle pedestrian" speed="7.26" length="6.53" width="6.00" shape="253.50,97.50 250.22,97.88 247.88,99.00 247.50,99.50"/>
    </edge>
    <edge id=":B_EW_1_4" function="internal">
        <lane id=":B_EW_1_4_0" index="0" disallow="tram bicycle pedestrian" speed="17.80" length="21.00" width="5.00" shape="253.50,97.50 232.50,97.50"/>
        <lane id=":B_EW_1_4_1" index="1" disallow="tram bicycle pedestrian" speed="17.80" length="21.00" width="5.00" shape="253.50,92.50 232.50,92.50"/>
        <lane id=":B_EW_1_4_2" index="2" disallow="tram bicycle pedestrian" speed="17.80" length="21.00" width="5.00" shape="253.50,87.50 232.50,87.50"/>
    </edge>
    <edge id=":B_EW_1_7" function="internal">
        <lane id=":B_EW_1_7_0" index="0" disallow="tram bicycle pedestrian" speed="11.17" length="7.79" width="6.00" shape="253.50,87.50 247.59,86.19 246.32,85.00"/>
    </edge>
    <edge id=":B_EW_1_18" function="internal">
        <lane id=":B_EW_1_18_0" index="0" disallow="tram bicycle pedestrian" speed="7.26" length="4.39" width="6.00" shape="247.50,99.50 246.47,100.88 246.00,103.50"/>
    </edge>
    <edge id=":B_EW_1_19" function="internal">
        <lane id=":B_EW_1_19_0" index="0" disallow="tram bicycle pedestrian" speed="11.17" length="20.29" width="6.00" shape="246.32,85.00 243.38,82.25 240.84,75.69 240.00,66.50"/>
    </edge>
    <edge id=":B_EW_1_8" function="internal">
        <lane id=":B_EW_1_8_0" index="0" disallow="tram bicycle pedestrian" speed="7.36" length="6.81" width="5.00" shape="246.00,66.50 246.47,69.12 247.88,71.00 249.50,71.78"/>
    </edge>
    <edge id=":B_EW_1_9" function="internal">
        <lane id=":B_EW_1_9_0" index="0" disallow="tram bicycle pedestrian" speed="11.15" length="37.00" width="6.00" shape="246.00,66.50 246.00,103.50"/>
    </edge>
    <edge id=":B_EW_1_10" function="internal">
        <lane id=":B_EW_1_10_0" index="0" disallow="tram bicycle pedestrian" speed="11.24" length="15.22" width="5.00" shape="246.00,66.50 245.16,75.69 243.00,81.28"/>
    </edge>
    <edge id=":B_EW_1_20" function="internal">
        <lane id=":B_EW_1_20_0" index="0" disallow="tram bicycle pedestrian" speed="7.36" length="4.10" width="5.00" shape="249.50,71.78 250.22,72.12 253.50,72.50"/>
    </edge>
    <edge id=":B_EW_1_21" function="internal">
        <lane id=":B_EW_1_21_0" index="0" disallow="tram bicycle pedestrian" speed="11.24" length="12.86" width="5.00" shape="243.00,81.28 242.62,82.25 238.41,86.19 232.50,87.50"/>
    </edge>
    <edge id=":B_EW_1_11" function="internal">
        <lane id=":B_EW_1_11_0" index="0" disallow="tram bicycle pedestrian" speed="7.26" length="6.53" width="6.00" shape="232.50,72.50 235.78,72.12 238.12,71.00 238.50,70.50"/>
    </edge>
    <edge id=":B_EW_1_12" function="internal">
        <lane id=":B_EW_1_12_0" index="0" disallow="tram bicycle pedestrian" speed="17.80" length="21.00" width="5.00" shape="232.50,72.50 253.50,72.50"/>
        <lane id=":B_EW_1_12_1" index="1" disallow="tram bicycle pedestrian" speed="17.80" length="21.00" width="5.00" shape="232.50,77.50 253.50,77.50"/>
        <lane id=":B_EW_1_12_2" index="2" disallow="tram bicycle pedestrian" speed="17.80" length="21.00" width="5.00" shape="232.50,82.50 253.50,82.50"/>
    </edge>
    <edge id=":B_EW_1_15" function="internal">
        <lane id=":B_EW_1_15_0" index="0" disallow="tram bicycle pedestrian" speed="11.17" length="7.79" width="6.00" shape="232.50,82.50 238.41,83.81 239.68,85.00"/>
    </edge>
    <edge id=":B_EW_1_22" function="internal">
        <lane id=":B_EW_1_22_0" index="0" disallow="tram bicycle pedestrian" speed="7.26" length="4.39" width="6.00" shape="238.50,70.50 239.53,69.12 240.00,66.50"/>
    </edge>
    <edge id=":B_EW_1_23" function="internal">
        <lane id=":B_EW_1_23_0" index="0" disallow="tram bicycle pedestrian" speed="11.17" length="20.29" width="6.00" shape="239.68,85.00 242.62,87.75 245.16,94.31 246.00,103.50"/>
    </edge>
    <edge id=":B_EW_1_c0" function="crossing" crossingEdges="a1_ns_43 a1_ns_34">
        <lane id=":B_EW_1_c0_0" index="0" allow="pedestrian" speed="1.00" length="12.00" width="4.00" shape="249.00,101.50 237.00,101.50"/>
    </edge>
    <edge id=":B_EW_1_c1" function="crossing" crossingEdges="b_ew_12 b_ew_21">
        <lane id=":B_EW_1_c1_0" index="0" allow="pedestrian" speed="1.00" length="30.00" width="4.00" shape="251.50,70.00 251.50,100.00"/>
    </edge>
    <edge id=":B_EW_1_c2" function="crossing" crossingEdges="a1_ns_45 a1_ns_54">
        <lane id=":B_EW_1_c2_0" index="0" allow="pedestrian" speed="1.00" length="12.00" width="4.00" shape="237.00,68.50 249.00,68.50"/>
    </edge>
    <edge id=":B_EW_1_c3" function="crossing" crossingEdges="b_ew_1b b_ew_b1">
        <lane id=":B_EW_1_c3_0" index="0" allow="pedestrian" speed="1.00" length="30.00" width="4.00" shape="234.50,100.00 234.50,70.00"/>
    </edge>
    <edge id=":B_EW_1_w0" function="walkingarea">
        <lane id=":B_EW_1_w0_0" index="0" allow="pedestrian" speed="1.00" length="3.29" width="4.00" shape="232.50,100.00 232.50,102.00 234.00,103.50 237.00,103.50 236.88,102.43 236.50,101.56 235.88,100.88 235.00,100.39 233.88,100.10"/>
    </edge>
    <edge id=":B_EW_1_w1" function="walkingarea">
        <lane id=":B_EW_1_w1_0" index="0" allow="pedestrian" speed="1.00" length="3.29" width="4.00" shape="249.00,103.50 252.00,103.50 253.50,102.00 253.50,100.00 252.13,100.10 251.00,100.39 250.12,100.88 249.50,101.56 249.12,102.43"/>
    </edge>
    <edge id=":B_EW_1_w2" function="walkingarea">
        <lane id=":B_EW_1_w2_0" index="0" allow="pedestrian" speed="1.00" length="3.29" width="4.00" shape="253.50,70.00 253.50,68.00 252.00,66.50 249.00,66.50 249.13,67.57 249.50,68.44 250.12,69.12 251.00,69.61 252.12,69.90"/>
    </edge>
    <edge id=":B_EW_1_w3" function="walkingarea">
        <lane id=":B_EW_1_w3_0" index="0" allow="pedestrian" speed="1.00" length="3.29" width="4.00" shape="237.00,66.50 234.00,66.50 232.50,68.00 232.50,70.00 233.88,69.90 235.00,69.61 235.88,69.12 236.50,68.44 236.88,67.57"/>
    </edge>
    <edge id=":B_EW_2_0" function="internal">
        <lane id=":B_EW_2_0_0" index="0" disallow="tram bicycle pedestrian" speed="7.36" length="6.81" width="5.00" shape="463.00,103.50 462.53,100.88 461.12,99.00 459.50,98.22"/>
    </edge>
    <edge id=":B_EW_2_1" function="internal">
        <lane id=":B_EW_2_1_0" index="0" disallow="tram bicycle pedestrian" speed="11.15" length="37.00" width="6.00" shape="463.00,103.50 463.00,66.50"/>
    </edge>
    <edge id=":B_EW_2_2" function="internal">
        <lane id=":B_EW_2_2_0" index="0" disallow="tram bicycle pedestrian" speed="11.24" length="15.22" width="5.00" shape="463.00,103.50 463.84,94.31 466.00,88.72"/>
    </edge>
    <edge id=":B_EW_2_16" function="internal">
        <lane id=":B_EW_2_16_0" index="0" disallow="tram bicycle pedestrian" speed="7.36" length="4.10" width="5.00" shape="459.50,98.22 458.78,97.88 455.50,97.50"/>
    </edge>
    <edge id=":B_EW_2_17" function="internal">
        <lane id=":B_EW_2_17_0" index="0" disallow="tram bicycle pedestrian" speed="11.24" length="12.86" width="5.00" shape="466.00,88.72 466.38,87.75 470.59,83.81 476.50,82.50"/>
    </edge>
    <edge id=":B_EW_2_3" function="internal">
        <lane id=":B_EW_2_3_0" index="0" disallow="tram bicycle pedestrian" speed="7.26" length="6.53" width="6.00" shape="476.50,97.50 473.22,97.88 470.88,99.00 470.50,99.50"/>
    </edge>
    <edge id=":B_EW_2_4" function="internal">
        <lane id=":B_EW_2_4_0" index="0" disallow="tram bicycle pedestrian" speed="17.80" length="21.00" width="5.00" shape="476.50,97.50 455.50,97.50"/>
        <lane id=":B_EW_2_4_1" index="1" disallow="tram bicycle pedestrian" speed="17.80" length="21.00" width="5.00" shape="476.50,92.50 455.50,92.50"/>
        <lane id=":B_EW_2_4_2" index="2" disallow="tram bicycle pedestrian" speed="17.80" length="21.00" width="5.00" shape="476.50,87.50 455.50,87.50"/>
    </edge>
    <edge id=":B_EW_2_7" function="internal">
        <lane id=":B_EW_2_7_0" index="0" disallow="tram bicycle pedestrian" speed="11.17" length="7.79" width="6.00" shape="476.50,87.50 470.59,86.19 469.32,85.00"/>
    </edge>
    <edge id=":B_EW_2_18" function="internal">
        <lane id=":B_EW_2_18_0" index="0" disallow="tram bicycle pedestrian" speed="7.26" length="4.39" width="6.00" shape="470.50,99.50 469.47,100.88 469.00,103.50"/>
    </edge>
    <edge id=":B_EW_2_19" function="internal">
        <lane id=":B_EW_2_19_0" index="0" disallow="tram bicycle pedestrian" speed="11.17" length="20.29" width="6.00" shape="469.32,85.00 466.38,82.25 463.84,75.69 463.00,66.50"/>
    </edge>
    <edge id=":B_EW_2_8" function="internal">
        <lane id=":B_EW_2_8_0" index="0" disallow="tram bicycle pedestrian" speed="7.36" length="6.81" width="5.00" shape="469.00,66.50 469.47,69.12 470.88,71.00 472.50,71.78"/>
    </edge>
    <edge id=":B_EW_2_9" function="internal">
        <lane id=":B_EW_2_9_0" index="0" disallow="tram bicycle pedestrian" speed="11.15" length="37.00" width="6.00" shape="469.00,66.50 469.00,103.50"/>
    </edge>
    <edge id=":B_EW_2_10" function="internal">
        <lane id=":B_EW_2_10_0" index="0" disallow="tram bicycle pedestrian" speed="11.24" length="15.22" width="5.00" shape="469.00,66.50 468.16,75.69 466.00,81.28"/>
    </edge>
    <edge id=":B_EW_2_20" function="internal">
        <lane id=":B_EW_2_20_0" index="0" disallow="tram bicycle pedestrian" speed="7.36" length="4.10" width="5.00" shape="472.50,71.78 473.22,72.12 476.50,72.50"/>
    </edge>
    <edge id=":B_EW_2_21" function="internal">
        <lane id=":B_EW_2_21_0" index="0" disallow="tram bicycle pedestrian" speed="11.24" length="12.86" width="5.00" shape="466.00,81.28 465.62,82.25 461.41,86.19 455.50,87.50"/>
    </edge>
    <edge id=":B_EW_2_11" function="internal">
        <lane id=":B_EW_2_11_0" index="0" disallow="tram bicycle pedestrian" speed="7.26" length="6.53" width="6.00" shape="455.50,72.50 458.78,72.12 461.12,71.00 461.50,70.50"/>
    </edge>
    <edge id=":B_EW_2_12" function="internal">
        <lane id=":B_EW_2_12_0" index="0" disallow="tram bicycle pedestrian" speed="17.80" length="21.00" width="5.00" shape="455.50,72.50 476.50,72.50"/>
        <lane id=":B_EW_2_12_1" index="1" disallow="tram bicycle pedestrian" speed="17.80" length="21.00" width="5.00" shape="455.50,77.50 476.50,77.50"/>
        <lane id=":B_EW_2_12_2" index="2" disallow="tram bicycle pedestrian" speed="17.80" length="21.00" width="5.00" shape="455.50,82.50 476.50,82.50"/>
    </edge>
    <edge id=":B_EW_2_15" function="internal">
        <lane id=":B_EW_2_15_0" index="0" disallow="tram bicycle pedestrian" speed="11.17" length="7.79" width="6.00" shape="455.50,82.50 461.41,83.81 462.68,85.00"/>
    </edge>
    <edge id=":B_EW_2_22" function="internal">
        <lane id=":B_EW_2_22_0" index="0" disallow="tram bicycle pedestrian" speed="7.26" length="4.39" width="6.00" shape="461.50,70.50 462.53,69.12 463.00,66.50"/>
    </edge>
    <edge id=":B_EW_2_23" function="internal">
        <lane id=":B_EW_2_23_0" index="0" disallow="tram bicycle pedestrian" speed="11.17" length="20.29" width="6.00" shape="462.68,85.00 465.62,87.75 468.16,94.31 469.00,103.50"/>
    </edge>
    <edge id=":B_EW_2_c0" function="crossing" crossingEdges="a2_ns_43 a2_ns_34">
        <lane id=":B_EW_2_c0_0" index="0" allow="pedestrian" speed="1.00" length="12.00" width="4.00" shape="472.00,101.50 460.00,101.50"/>
    </edge>
    <edge id=":B_EW_2_c1" function="crossing" crossingEdges="b_ew_23 b_ew_32">
        <lane id=":B_EW_2_c1_0" index="0" allow="pedestrian" speed="1.00" length="30.00" width="4.00" shape="474.50,70.00 474.50,100.00"/>
    </edge>
    <edge id=":B_EW_2_c2" function="crossing" crossingEdges="a2_ns_45 a2_ns_54">
        <lane id=":B_EW_2_c2_0" index="0" allow="pedestrian" speed="1.00" length="12.00" width="4.00" shape="460.00,68.50 472.00,68.50"/>
    </edge>
    <edge id=":B_EW_2_c3" function="crossing" crossingEdges="b_ew_21 b_ew_12">
        <lane id=":B_EW_2_c3_0" index="0" allow="pedestrian" speed="1.00" length="30.00" width="4.00" shape="457.50,100.00 457.50,70.00"/>
    </edge>
    <edge id=":B_EW_2_w0" function="walkingarea">
        <lane id=":B_EW_2_w0_0" index="0" allow="pedestrian" speed="1.00" length="3.29" width="4.00" shape="455.50,100.00 455.50,102.00 457.00,103.50 460.00,103.50 459.88,102.43 459.50,101.56 458.88,100.88 458.00,100.39 456.88,100.10"/>
    </edge>
    <edge id=":B_EW_2_w1" function="walkingarea">
        <lane id=":B_EW_2_w1_0" index="0" allow="pedestrian" speed="1.00" length="3.29" width="4.00" shape="472.00,103.50 475.00,103.50 476.50,102.00 476.50,100.00 475.12,100.10 474.00,100.39 473.12,100.88 472.50,101.56 472.12,102.43"/>
    </edge>
    <edge id=":B_EW_2_w2" function="walkingarea">
        <lane id=":B_EW_2_w2_0" index="0" allow="pedestrian" speed="1.00" length="3.29" width="4.00" shape="476.50,70.00 476.50,68.00 475.00,66.50 472.00,66.50 472.12,67.57 472.50,68.44 473.12,69.12 474.00,69.61 475.12,69.90"/>
    </edge>
    <edge id=":B_EW_2_w3" function="walkingarea">
        <lane id=":B_EW_2_w3_0" index="0" allow="pedestrian" speed="1.00" length="3.29" width="4.00" shape="460.00,66.50 457.00,66.50 455.50,68.00 455.50,70.00 456.88,69.90 458.00,69.61 458.88,69.12 459.50,68.44 459.88,67.57"/>
    </edge>
    <edge id=":B_EW_3_0" function="internal">
        <lane id=":B_EW_3_0_0" index="0" disallow="tram bicycle pedestrian" speed="7.36" length="6.81" width="5.00" shape="672.00,103.50 671.53,100.88 670.12,99.00 668.50,98.22"/>
    </edge>
    <edge id=":B_EW_3_1" function="internal">
        <lane id=":B_EW_3_1_0" index="0" disallow="tram bicycle pedestrian" speed="11.15" length="37.00" width="6.00" shape="672.00,103.50 672.00,66.50"/>
    </edge>
    <edge id=":B_EW_3_2" function="internal">
        <lane id=":B_EW_3_2_0" index="0" disallow="tram bicycle pedestrian" speed="11.24" length="15.22" width="5.00" shape="672.00,103.50 672.84,94.31 675.00,88.72"/>
    </edge>
    <edge id=":B_EW_3_16" function="internal">
        <lane id=":B_EW_3_16_0" index="0" disallow="tram bicycle pedestrian" speed="7.36" length="4.10" width="5.00" shape="668.50,98.22 667.78,97.88 664.50,97.50"/>
    </edge>
    <edge id=":B_EW_3_17" function="internal">
        <lane id=":B_EW_3_17_0" index="0" disallow="tram bicycle pedestrian" speed="11.24" length="12.86" width="5.00" shape="675.00,88.72 675.38,87.75 679.59,83.81 685.50,82.50"/>
    </edge>
    <edge id=":B_EW_3_3" function="internal">
        <lane id=":B_EW_3_3_0" index="0" disallow="tram bicycle pedestrian" speed="7.26" length="6.53" width="6.00" shape="685.50,97.50 682.22,97.88 679.88,99.00 679.50,99.50"/>
    </edge>
    <edge id=":B_EW_3_4" function="internal">
        <lane id=":B_EW_3_4_0" index="0" disallow="tram bicycle pedestrian" speed="17.80" length="21.00" width="5.00" shape="685.50,97.50 664.50,97.50"/>
        <lane id=":B_EW_3_4_1" index="1" disallow="tram bicycle pedestrian" speed="17.80" length="21.00" width="5.00" shape="685.50,92.50 664.50,92.50"/>
        <lane id=":B_EW_3_4_2" index="2" disallow="tram bicycle pedestrian" speed="17.80" length="21.00" width="5.00" shape="685.50,87.50 664.50,87.50"/>
    </edge>
    <edge id=":B_EW_3_7" function="internal">
        <lane id=":B_EW_3_7_0" index="0" disallow="tram bicycle pedestrian" speed="11.17" length="7.79" width="6.00" shape="685.50,87.50 679.59,86.19 678.32,85.00"/>
    </edge>
    <edge id=":B_EW_3_18" function="internal">
        <lane id=":B_EW_3_18_0" index="0" disallow="tram bicycle pedestrian" speed="7.26" length="4.39" width="6.00" shape="679.50,99.50 678.47,100.88 678.00,103.50"/>
    </edge>
    <edge id=":B_EW_3_19" function="internal">
        <lane id=":B_EW_3_19_0" index="0" disallow="tram bicycle pedestrian" speed="11.17" length="20.29" width="6.00" shape="678.32,85.00 675.38,82.25 672.84,75.69 672.00,66.50"/>
    </edge>
    <edge id=":B_EW_3_8" function="internal">
        <lane id=":B_EW_3_8_0" index="0" disallow="tram bicycle pedestrian" speed="7.36" length="6.81" width="5.00" shape="678.00,66.50 678.47,69.12 679.88,71.00 681.50,71.78"/>
    </edge>
    <edge id=":B_EW_3_9" function="internal">
        <lane id=":B_EW_3_9_0" index="0" disallow="tram bicycle pedestrian" speed="11.15" length="37.00" width="6.00" shape="678.00,66.50 678.00,103.50"/>
    </edge>
    <edge id=":B_EW_3_10" function="internal">
        <lane id=":B_EW_3_10_0" index="0" disallow="tram bicycle pedestrian" speed="11.24" length="15.22" width="5.00" shape="678.00,66.50 677.16,75.69 675.00,81.28"/>
    </edge>
    <edge id=":B_EW_3_20" function="internal">
        <lane id=":B_EW_3_20_0" index="0" disallow="tram bicycle pedestrian" speed="7.36" length="4.10" width="5.00" shape="681.50,71.78 682.22,72.12 685.50,72.50"/>
    </edge>
    <edge id=":B_EW_3_21" function="internal">
        <lane id=":B_EW_3_21_0" index="0" disallow="tram bicycle pedestrian" speed="11.24" length="12.86" width="5.00" shape="675.00,81.28 674.62,82.25 670.41,86.19 664.50,87.50"/>
    </edge>
    <edge id=":B_EW_3_11" function="internal">
        <lane id=":B_EW_3_11_0" index="0" disallow="tram bicycle pedestrian" speed="7.26" length="6.53" width="6.00" shape="664.50,72.50 667.78,72.12 670.12,71.00 670.50,70.50"/>
    </edge>
    <edge id=":B_EW_3_12" function="internal">
        <lane id=":B_EW_3_12_0" index="0" disallow="tram bicycle pedestrian" speed="17.80" length="21.00" width="5.00" shape="664.50,72.50 685.50,72.50"/>
        <lane id=":B_EW_3_12_1" index="1" disallow="tram bicycle pedestrian" speed="17.80" length="21.00" width="5.00" shape="664.50,77.50 685.50,77.50"/>
        <lane id=":B_EW_3_12_2" index="2" disallow="tram bicycle pedestrian" speed="17.80" length="21.00" width="5.00" shape="664.50,82.50 685.50,82.50"/>
    </edge>
    <edge id=":B_EW_3_15" function="internal">
        <lane id=":B_EW_3_15_0" index="0" disallow="tram bicycle pedestrian" speed="11.17" length="7.79" width="6.00" shape="664.50,82.50 670.41,83.81 671.68,85.00"/>
    </edge>
    <edge id=":B_EW_3_22" function="internal">
        <lane id=":B_EW_3_22_0" index="0" disallow="tram bicycle pedestrian" speed="7.26" length="4.39" width="6.00" shape="670.50,70.50 671.53,69.12 672.00,66.50"/>
    </edge>
    <edge id=":B_EW_3_23" function="internal">
        <lane id=":B_EW_3_23_0" index="0" disallow="tram bicycle pedestrian" speed="11.17" length="20.29" width="6.00" shape="671.68,85.00 674.62,87.75 677.16,94.31 678.00,103.50"/>
    </edge>
    <edge id=":B_EW_3_c0" function="crossing" crossingEdges="a3_ns_43 a3_ns_34">
        <lane id=":B_EW_3_c0_0" index="0" allow="pedestrian" speed="1.00" length="12.00" width="4.00" shape="681.00,101.50 669.00,101.50"/>
    </edge>
    <edge id=":B_EW_3_c1" function="crossing" crossingEdges="b_ew_34 b_ew_43">
        <lane id=":B_EW_3_c1_0" index="0" allow="pedestrian" speed="1.00" length="30.00" width="4.00" shape="683.50,70.00 683.50,100.00"/>
    </edge>
    <edge id=":B_EW_3_c2" function="crossing" crossingEdges="a3_ns_45 a3_ns_54">
        <lane id=":B_EW_3_c2_0" index="0" allow="pedestrian" speed="1.00" length="12.00" width="4.00" shape="669.00,68.50 681.00,68.50"/>
    </edge>
    <edge id=":B_EW_3_c3" function="crossing" crossingEdges="b_ew_32 b_ew_23">
        <lane id=":B_EW_3_c3_0" index="0" allow="pedestrian" speed="1.00" length="30.00" width="4.00" shape="666.50,100.00 666.50,70.00"/>
    </edge>
    <edge id=":B_EW_3_w0" function="walkingarea">
        <lane id=":B_EW_3_w0_0" index="0" allow="pedestrian" speed="1.00" length="3.29" width="4.00" shape="664.50,100.00 664.50,102.00 666.00,103.50 669.00,103.50 668.88,102.43 668.50,101.56 667.88,100.88 667.00,100.39 665.88,100.10"/>
    </edge>
    <edge id=":B_EW_3_w1" function="walkingarea">
        <lane id=":B_EW_3_w1_0" index="0" allow="pedestrian" speed="1.00" length="3.29" width="4.00" shape="681.00,103.50 684.00,103.50 685.50,102.00 685.50,100.00 684.13,100.10 683.00,100.39 682.12,100.88 681.50,101.56 681.12,102.43"/>
    </edge>
    <edge id=":B_EW_3_w2" function="walkingarea">
        <lane id=":B_EW_3_w2_0" index="0" allow="pedestrian" speed="1.00" length="3.29" width="4.00" shape="685.50,70.00 685.50,68.00 684.00,66.50 681.00,66.50 681.13,67.57 681.50,68.44 682.12,69.12 683.00,69.61 684.12,69.90"/>
    </edge>
    <edge id=":B_EW_3_w3" function="walkingarea">
        <lane id=":B_EW_3_w3_0" index="0" allow="pedestrian" speed="1.00" length="3.29" width="4.00" shape="669.00,66.50 666.00,66.50 664.50,68.00 664.50,70.00 665.88,69.90 667.00,69.61 667.88,69.12 668.50,68.44 668.88,67.57"/>
    </edge>
    <edge id=":B_EW_4_0" function="internal">
        <lane id=":B_EW_4_0_0" index="0" disallow="tram bicycle pedestrian" speed="10.16" length="14.11" width="5.00" shape="982.88,97.50 980.26,98.40 977.81,101.10 975.53,105.61 974.69,108.11"/>
    </edge>
    <edge id=":B_EW_4_1" function="internal">
        <lane id=":B_EW_4_1_0" index="0" disallow="tram bicycle pedestrian" speed="17.80" length="39.32" width="5.00" shape="982.88,97.50 943.56,97.50"/>
        <lane id=":B_EW_4_1_1" index="1" disallow="tram bicycle pedestrian" speed="17.80" length="39.32" width="5.00" shape="982.88,92.50 943.56,92.50"/>
        <lane id=":B_EW_4_1_2" index="2" disallow="tram bicycle pedestrian" speed="17.80" length="39.32" width="5.00" shape="982.88,87.50 943.56,87.50"/>
    </edge>
    <edge id=":B_EW_4_12" function="internal">
        <lane id=":B_EW_4_12_0" index="0" disallow="tram bicycle pedestrian" speed="10.16" length="4.00" width="5.00" shape="974.69,108.11 973.42,111.91"/>
    </edge>
    <edge id=":B_EW_4_4" function="internal">
        <lane id=":B_EW_4_4_0" index="0" disallow="tram bicycle pedestrian" speed="17.80" length="39.32" width="5.00" shape="943.56,72.50 982.88,72.50"/>
        <lane id=":B_EW_4_4_1" index="1" disallow="tram bicycle pedestrian" speed="17.80" length="39.32" width="5.00" shape="943.56,77.50 982.88,77.50"/>
        <lane id=":B_EW_4_4_2" index="2" disallow="tram bicycle pedestrian" speed="17.80" length="39.32" width="5.00" shape="943.56,82.50 982.88,82.50"/>
    </edge>
    <edge id=":B_EW_4_7" function="internal">
        <lane id=":B_EW_4_7_0" index="0" disallow="tram bicycle pedestrian" speed="12.96" length="15.57" width="5.00" shape="943.56,82.50 957.08,84.06 958.80,85.00"/>
    </edge>
    <edge id=":B_EW_4_8" function="internal">
        <lane id=":B_EW_4_8_0" index="0" disallow="tram bicycle pedestrian" speed="12.26" length="13.34" width="5.00" shape="943.56,82.50 955.28,84.15 956.52,85.00"/>
    </edge>
    <edge id=":B_EW_4_13" function="internal">
        <lane id=":B_EW_4_13_0" index="0" disallow="tram bicycle pedestrian" speed="12.96" length="30.78" width="5.00" shape="958.80,85.00 966.04,88.99 970.01,97.69 968.60,110.56"/>
    </edge>
    <edge id=":B_EW_4_14" function="internal">
        <lane id=":B_EW_4_14_0" index="0" disallow="tram bicycle pedestrian" speed="12.26" length="27.95" width="5.00" shape="956.52,85.00 962.54,89.13 965.37,97.47 963.79,109.20"/>
    </edge>
    <edge id=":B_EW_4_9" function="internal">
        <lane id=":B_EW_4_9_0" index="0" disallow="tram bicycle pedestrian" speed="6.92" length="7.62" width="5.00" shape="949.35,105.14 949.79,101.80 948.98,99.41 947.56,98.43"/>
    </edge>
    <edge id=":B_EW_4_10" function="internal">
        <lane id=":B_EW_4_10_0" index="0" disallow="tram bicycle pedestrian" speed="15.51" length="39.92" width="5.00" shape="954.16,106.50 959.02,93.81 965.42,84.75 973.37,79.31 978.88,78.26"/>
    </edge>
    <edge id=":B_EW_4_11" function="internal">
        <lane id=":B_EW_4_11_0" index="0" disallow="tram bicycle pedestrian" speed="14.36" length="33.40" width="5.00" shape="958.98,107.85 963.14,96.76 968.52,88.84 975.09,84.08 978.88,83.31"/>
    </edge>
    <edge id=":B_EW_4_15" function="internal">
        <lane id=":B_EW_4_15_0" index="0" disallow="tram bicycle pedestrian" speed="6.92" length="4.18" width="5.00" shape="947.56,98.43 946.90,97.98 943.56,97.50"/>
    </edge>
    <edge id=":B_EW_4_16" function="internal">
        <lane id=":B_EW_4_16_0" index="0" disallow="tram bicycle pedestrian" speed="15.51" length="4.07" width="5.00" shape="978.88,78.26 982.88,77.50"/>
    </edge>
    <edge id=":B_EW_4_17" function="internal">
        <lane id=":B_EW_4_17_0" index="0" disallow="tram bicycle pedestrian" speed="14.36" length="4.08" width="5.00" shape="978.88,83.31 982.88,82.50"/>
    </edge>
    <edge id=":B_EW_4_c0" function="crossing" crossingEdges="b_ew_4out b_ew_out4">
        <lane id=":B_EW_4_c0_0" index="0" allow="pedestrian" speed="1.00" length="30.00" width="4.00" shape="980.88,70.00 980.88,100.00"/>
    </edge>
    <edge id=":B_EW_4_c1" function="crossing" crossingEdges="b_ew_43 b_ew_34">
        <lane id=":B_EW_4_c1_0" index="0" allow="pedestrian" speed="1.00" length="30.00" width="4.00" shape="945.56,100.00 945.56,70.00"/>
    </edge>
    <edge id=":B_EW_4_c2" function="crossing" crossingEdges="b_diag_43 b_diag_34">
        <lane id=":B_EW_4_c2_0" index="0" allow="pedestrian" speed="1.00" length="30.00" width="4.00" shape="976.36,110.66 947.48,102.54"/>
    </edge>
    <edge id=":B_EW_4_w0" function="walkingarea">
        <lane id=":B_EW_4_w0_0" index="0" allow="pedestrian" speed="1.00" length="9.09" width="4.00" shape="975.82,112.59 977.75,113.13 982.88,102.00 982.88,100.00 981.71,100.35 980.53,101.40 979.36,103.15 978.18,105.60 977.00,108.74"/>
    </edge>
    <edge id=":B_EW_4_w1" function="walkingarea">