<?xml version="1.0" encoding="UTF-8"?>

<!-- generated on Wed Aug 28 12:47:32 2019 by Eclipse SUMO netconvert Version 1.2.0
<configuration xmlns:xsi="http://www.w3.org/2001/XMLSchema-instance" xsi:noNamespaceSchemaLocation="http://sumo.dlr.de/xsd/netconvertConfiguration.xsd">

    <input>
        <node-files value="proposed-inputs/proposed.nod.xml"/>
        <edge-files value="proposed-inputs/proposed.edg.xml"/>
        <type-files value="proposed-inputs/proposed.typ.xml"/>
    </input>

    <output>
        <output-file value="proposed.net.xml"/>
    </output>

    <junctions>
        <no-turnarounds value="true"/>
    </junctions>

    <pedestrian>
        <crossings.guess value="true"/>
    </pedestrian>

</configuration>
-->

<net version="1.1" junctionCornerDetail="5" walkingareas="true" limitTurnSpeed="5.50" xmlns:xsi="http://www.w3.org/2001/XMLSchema-instance" xsi:noNamespaceSchemaLocation="http://sumo.dlr.de/xsd/net_file.xsd">

    <location netOffset="450.00,220.00" convBoundary="0.00,0.00,1000.00,590.00" origBoundary="-10000000000.00,-10000000000.00,10000000000.00,10000000000.00" projParameter="!"/>

    <type id="accessway" numLanes="3" speed="6.15"/>
    <type id="boulevard" numLanes="5" speed="11.15"/>
    <type id="laneway" speed="2.25" allow="pedestrian"/>
    <type id="transitway" numLanes="4" speed="11.15"/>

    <edge id=":A_NS_1_w0" function="walkingarea">
        <lane id=":A_NS_1_w0_0" index="0" allow="pedestrian" speed="1.00" length="18.80" width="6.00" shape="236.60,590.00 230.60,590.00 255.40,590.00 249.40,590.00"/>
    </edge>
    <edge id=":A_NS_1_X_w0" function="walkingarea">
        <lane id=":A_NS_1_X_w0_0" index="0" allow="pedestrian" speed="1.00" length="16.00" width="3.20" shape="249.40,0.00 252.60,0.00 233.40,0.00 236.60,0.00"/>
    </edge>
    <edge id=":A_NS_2_w0" function="walkingarea">
        <lane id=":A_NS_2_w0_0" index="0" allow="pedestrian" speed="1.00" length="16.00" width="3.20" shape="459.60,590.00 456.40,590.00 475.60,590.00 472.40,590.00"/>
    </edge>
    <edge id=":A_NS_2_X_w0" function="walkingarea">
        <lane id=":A_NS_2_X_w0_0" index="0" allow="pedestrian" speed="1.00" length="16.00" width="3.20" shape="472.40,0.00 475.60,0.00 456.40,0.00 459.60,0.00"/>
    </edge>
    <edge id=":A_NS_3_w0" function="walkingarea">
        <lane id=":A_NS_3_w0_0" index="0" allow="pedestrian" speed="1.00" length="16.00" width="3.20" shape="668.60,590.00 665.40,590.00 684.60,590.00 681.40,590.00"/>
    </edge>
    <edge id=":A_NS_3_X_w0" function="walkingarea">
        <lane id=":A_NS_3_X_w0_0" index="0" allow="pedestrian" speed="1.00" length="16.00" width="3.20" shape="681.40,0.00 684.60,0.00 665.40,0.00 668.60,0.00"/>
    </edge>
    <edge id=":B_D1_w0" function="walkingarea">
        <lane id=":B_D1_w0_0" index="0" allow="pedestrian" speed="1.00" length="28.80" width="3.20" shape="815.68,586.53 812.60,585.67 843.40,594.33 840.32,593.47"/>
    </edge>
    <edge id=":B_EW_0_w0" function="walkingarea">
        <lane id=":B_EW_0_w0_0" index="0" allow="pedestrian" speed="1.00" length="28.80" width="3.20" shape="0.00,72.20 0.00,69.00 0.00,101.00 0.00,97.80"/>
    </edge>
    <edge id=":B_EW_1_0" function="internal">
        <lane id=":B_EW_1_0_0" index="0" disallow="bus tram bicycle pedestrian" speed="8.65" length="11.38" shape="238.20,102.50 239.60,95.27 241.40,91.68"/>
    </edge>
    <edge id=":B_EW_1_1" function="internal">
        <lane id=":B_EW_1_1_0" index="0" disallow="bus tram bicycle pedestrian" speed="7.64" length="8.35" shape="238.20,102.50 237.81,98.34 236.62,95.38 235.90,94.72"/>
    </edge>
    <edge id=":B_EW_1_2" function="internal">
        <lane id=":B_EW_1_2_0" index="0" disallow="bus tram bicycle pedestrian" speed="6.15" length="35.00" shape="238.20,102.50 238.20,67.50"/>
    </edge>
    <edge id=":B_EW_1_3" function="internal">
        <lane id=":B_EW_1_3_0" index="0" disallow="bus tram bicycle pedestrian" speed="8.65" length="11.99" shape="238.20,102.50 239.69,94.77 241.40,91.03"/>
    </edge>
    <edge id=":B_EW_1_4" function="internal">
        <lane id=":B_EW_1_4_0" index="0" allow="bicycle" speed="8.65" length="19.28" shape="241.40,102.50 242.63,94.27 245.73,84.82 246.20,83.92"/>
    </edge>
    <edge id=":B_EW_1_5" function="internal">
        <lane id=":B_EW_1_5_0" index="0" allow="bicycle" speed="7.64" length="4.32" shape="241.40,102.50 240.81,99.74 239.80,98.63"/>
    </edge>
    <edge id=":B_EW_1_6" function="internal">
        <lane id=":B_EW_1_6_0" index="0" allow="bicycle" speed="6.15" length="35.00" shape="241.40,102.50 241.40,67.50"/>
    </edge>
    <edge id=":B_EW_1_30" function="internal">
        <lane id=":B_EW_1_30_0" index="0" disallow="bus tram bicycle pedestrian" speed="8.65" length="17.84" shape="241.40,91.68 243.25,88.02 248.35,82.43 254.10,80.20"/>
    </edge>
    <edge id=":B_EW_1_31" function="internal">
        <lane id=":B_EW_1_31_0" index="0" disallow="bus tram bicycle pedestrian" speed="7.64" length="4.50" shape="235.90,94.72 234.66,93.59 231.90,93.00"/>
    </edge>
    <edge id=":B_EW_1_32" function="internal">
        <lane id=":B_EW_1_32_0" index="0" disallow="bus tram bicycle pedestrian" speed="8.65" length="19.60" shape="241.40,91.03 243.50,86.42 248.64,79.73 254.10,77.00"/>
    </edge>
    <edge id=":B_EW_1_33" function="internal">
        <lane id=":B_EW_1_33_0" index="0" allow="bicycle" speed="8.65" length="13.14" shape="246.20,83.92 249.84,77.03 254.10,73.80"/>
    </edge>
    <edge id=":B_EW_1_34" function="internal">
        <lane id=":B_EW_1_34_0" index="0" allow="bicycle" speed="7.64" length="8.53" shape="239.80,98.63 239.03,97.78 236.06,96.59 231.90,96.20"/>
    </edge>
    <edge id=":B_EW_1_7" function="internal">
        <lane id=":B_EW_1_7_0" index="0" allow="bicycle" speed="8.65" length="8.14" shape="254.10,96.20 249.84,92.97 248.54,90.50"/>
    </edge>
    <edge id=":B_EW_1_8" function="internal">
        <lane id=":B_EW_1_8_0" index="0" allow="bicycle" speed="7.64" length="8.35" shape="254.10,96.20 249.94,96.59 246.97,97.78 246.32,98.50"/>
    </edge>
    <edge id=":B_EW_1_9" function="internal">
        <lane id=":B_EW_1_9_0" index="0" allow="bicycle" speed="11.15" length="22.20" shape="254.10,96.20 231.90,96.20"/>
        <lane id=":B_EW_1_9_1" index="1" disallow="bus tram bicycle pedestrian" speed="11.15" length="22.20" shape="254.10,93.00 231.90,93.00"/>
    </edge>
    <edge id=":B_EW_1_11" function="internal">
        <lane id=":B_EW_1_11_0" index="0" disallow="bus tram bicycle pedestrian" speed="7.64" length="8.83" shape="254.10,93.00 251.34,93.59 249.38,95.38 248.19,98.34 248.18,98.50"/>
    </edge>
    <edge id=":B_EW_1_12" function="internal">
        <lane id=":B_EW_1_12_0" index="0" disallow="bus tram bicycle pedestrian" speed="8.65" length="7.83" shape="254.10,89.80 248.35,87.57 247.23,86.34"/>
    </edge>
    <edge id=":B_EW_1_13" function="internal">
        <lane id=":B_EW_1_13_0" index="0" disallow="bus tram bicycle pedestrian" speed="11.15" length="22.20" shape="254.10,89.80 231.90,89.80"/>
        <lane id=":B_EW_1_13_1" index="1" allow="bus tram" speed="11.15" length="22.20" shape="254.10,86.60 231.90,86.60"/>
    </edge>
    <edge id=":B_EW_1_35" function="internal">
        <lane id=":B_EW_1_35_0" index="0" allow="bicycle" speed="8.65" length="24.28" shape="248.54,90.50 245.73,85.18 242.63,75.73 241.40,67.50"/>
    </edge>
    <edge id=":B_EW_1_36" function="internal">
        <lane id=":B_EW_1_36_0" index="0" allow="bicycle" speed="7.64" length="4.50" shape="246.32,98.50 245.19,99.74 244.60,102.50"/>
    </edge>
    <edge id=":B_EW_1_37" function="internal">
        <lane id=":B_EW_1_37_0" index="0" disallow="bus tram bicycle pedestrian" speed="7.64" length="4.02" shape="248.18,98.50 247.80,102.50"/>
    </edge>
    <edge id=":B_EW_1_38" function="internal">
        <lane id=":B_EW_1_38_0" index="0" disallow="bus tram bicycle pedestrian" speed="8.65" length="21.39" shape="247.23,86.34 243.25,81.98 239.60,74.73 238.20,67.50"/>
    </edge>
    <edge id=":B_EW_1_15" function="internal">
        <lane id=":B_EW_1_15_0" index="0" disallow="bus tram bicycle pedestrian" speed="8.65" length="11.38" shape="247.80,67.50 246.40,74.73 244.60,78.32"/>
    </edge>
    <edge id=":B_EW_1_16" function="internal">
        <lane id=":B_EW_1_16_0" index="0" disallow="bus tram bicycle pedestrian" speed="7.64" length="8.35" shape="247.80,67.50 248.19,71.66 249.38,74.63 250.10,75.28"/>
    </edge>
    <edge id=":B_EW_1_17" function="internal">
        <lane id=":B_EW_1_17_0" index="0" disallow="bus tram bicycle pedestrian" speed="6.15" length="35.00" shape="247.80,67.50 247.80,102.50"/>
    </edge>
    <edge id=":B_EW_1_18" function="internal">
        <lane id=":B_EW_1_18_0" index="0" disallow="bus tram bicycle pedestrian" speed="8.65" length="11.99" shape="247.80,67.50 246.31,75.23 244.60,78.97"/>
    </edge>
    <edge id=":B_EW_1_19" function="internal">
        <lane id=":B_EW_1_19_0" index="0" allow="bicycle" speed="8.65" length="19.28" shape="244.60,67.50 243.37,75.73 240.27,85.18 239.80,86.08"/>
    </edge>
    <edge id=":B_EW_1_20" function="internal">
        <lane id=":B_EW_1_20_0" index="0" allow="bicycle" speed="7.64" length="4.32" shape="244.60,67.50 245.19,70.26 246.20,71.37"/>
    </edge>
    <edge id=":B_EW_1_21" function="internal">
        <lane id=":B_EW_1_21_0" index="0" allow="bicycle" speed="6.15" length="35.00" shape="244.60,67.50 244.60,102.50"/>
    </edge>
    <edge id=":B_EW_1_39" function="internal">
        <lane id=":B_EW_1_39_0" index="0" disallow="bus tram bicycle pedestrian" speed="8.65" length="17.84" shape="244.60,78.32 242.75,81.98 237.65,87.57 231.90,89.80"/>
    </edge>
    <edge id=":B_EW_1_40" function="internal">
        <lane id=":B_EW_1_40_0" index="0" disallow="bus tram bicycle pedestrian" speed="7.64" length="4.50" shape="250.10,75.28 251.34,76.41 254.10,77.00"/>
    </edge>
    <edge id=":B_EW_1_41" function="internal">
        <lane id=":B_EW_1_41_0" index="0" disallow="bus tram bicycle pedestrian" speed="8.65" length="19.60" shape="244.60,78.97 242.50,83.58 237.36,90.27 231.90,93.00"/>
    </edge>
    <edge id=":B_EW_1_42" function="internal">
        <lane id=":B_EW_1_42_0" index="0" allow="bicycle" speed="8.65" length="13.14" shape="239.80,86.08 236.16,92.97 231.90,96.20"/>
    </edge>
    <edge id=":B_EW_1_43" function="internal">
        <lane id=":B_EW_1_43_0" index="0" allow="bicycle" speed="7.64" length="8.53" shape="246.20,71.37 246.97,72.23 249.94,73.41 254.10,73.80"/>
    </edge>
    <edge id=":B_EW_1_22" function="internal">
        <lane id=":B_EW_1_22_0" index="0" allow="bicycle" speed="8.65" length="8.14" shape="231.90,73.80 236.16,77.03 237.46,79.50"/>
    </edge>
    <edge id=":B_EW_1_23" function="internal">
        <lane id=":B_EW_1_23_0" index="0" allow="bicycle" speed="7.64" length="8.35" shape="231.90,73.80 236.06,73.41 239.02,72.22 239.68,71.50"/>
    </edge>
    <edge id=":B_EW_1_24" function="internal">
        <lane id=":B_EW_1_24_0" index="0" allow="bicycle" speed="11.15" length="22.20" shape="231.90,73.80 254.10,73.80"/>
        <lane id=":B_EW_1_24_1" index="1" disallow="bus tram bicycle pedestrian" speed="11.15" length="22.20" shape="231.90,77.00 254.10,77.00"/>
    </edge>
    <edge id=":B_EW_1_26" function="internal">
        <lane id=":B_EW_1_26_0" index="0" disallow="bus tram bicycle pedestrian" speed="7.64" length="8.83" shape="231.90,77.00 234.66,76.41 236.62,74.62 237.81,71.66 237.82,71.50"/>
    </edge>
    <edge id=":B_EW_1_27" function="internal">
        <lane id=":B_EW_1_27_0" index="0" disallow="bus tram bicycle pedestrian" speed="8.65" length="7.83" shape="231.90,80.20 237.65,82.43 238.77,83.66"/>
    </edge>
    <edge id=":B_EW_1_28" function="internal">
        <lane id=":B_EW_1_28_0" index="0" disallow="bus tram bicycle pedestrian" speed="11.15" length="22.20" shape="231.90,80.20 254.10,80.20"/>
        <lane id=":B_EW_1_28_1" index="1" allow="bus tram" speed="11.15" length="22.20" shape="231.90,83.40 254.10,83.40"/>
    </edge>
    <edge id=":B_EW_1_44" function="internal">
        <lane id=":B_EW_1_44_0" index="0" allow="bicycle" speed="8.65" length="24.28" shape="237.46,79.50 240.27,84.82 243.37,94.27 244.60,102.50"/>
    </edge>
    <edge id=":B_EW_1_45" function="internal">
        <lane id=":B_EW_1_45_0" index="0" allow="bicycle" speed="7.64" length="4.50" shape="239.68,71.50 240.81,70.26 241.40,67.50"/>
    </edge>
    <edge id=":B_EW_1_46" function="internal">
        <lane id=":B_EW_1_46_0" index="0" disallow="bus tram bicycle pedestrian" speed="7.64" length="4.02" shape="237.82,71.50 238.20,67.50"/>
    </edge>
    <edge id=":B_EW_1_47" function="internal">
        <lane id=":B_EW_1_47_0" index="0" disallow="bus tram bicycle pedestrian" speed="8.65" length="21.39" shape="238.77,83.66 242.75,88.02 246.40,95.27 247.80,102.50"/>
    </edge>
    <edge id=":B_EW_1_c0" function="crossing" crossingEdges="a1_ns_43 a1_ns_34">
        <lane id=":B_EW_1_c0_0" index="0" allow="pedestrian" speed="1.00" length="12.80" width="4.00" shape="249.40,100.50 236.60,100.50"/>
    </edge>
    <edge id=":B_EW_1_c1" function="crossing" crossingEdges="b_ew_12 b_ew_21">
        <lane id=":B_EW_1_c1_0" index="0" allow="pedestrian" speed="1.00" length="25.60" width="4.00" shape="252.10,72.20 252.10,97.80"/>
    </edge>
    <edge id=":B_EW_1_c2" function="crossing" crossingEdges="a1_ns_45 a1_ns_54">
        <lane id=":B_EW_1_c2_0" index="0" allow="pedestrian" speed="1.00" length="12.80" width="4.00" shape="236.60,69.50 249.40,69.50"/>
    </edge>
    <edge id=":B_EW_1_c3" function="crossing" crossingEdges="b_ew_1b b_ew_b1">
        <lane id=":B_EW_1_c3_0" index="0" allow="pedestrian" speed="1.00" length="25.60" width="4.00" shape="233.90,97.80 233.90,72.20"/>
    </edge>
    <edge id=":B_EW_1_w0" function="walkingarea">
        <lane id=":B_EW_1_w0_0" index="0" allow="pedestrian" speed="1.00" length="3.83" width="4.00" shape="231.90,97.80 231.90,101.00 233.40,102.50 236.60,102.50 236.47,101.06 236.08,99.89 235.42,98.98 234.51,98.32 233.34,97.93"/>
    </edge>
    <edge id=":B_EW_1_w1" function="walkingarea">
        <lane id=":B_EW_1_w1_0" index="0" allow="pedestrian" speed="1.00" length="3.83" width="4.00" shape="249.40,102.50 252.60,102.50 254.10,101.00 254.10,97.80 252.66,97.93 251.49,98.32 250.58,98.97 249.92,99.89 249.53,101.06"/>
    </edge>
    <edge id=":B_EW_1_w2" function="walkingarea">
        <lane id=":B_EW_1_w2_0" index="0" allow="pedestrian" speed="1.00" length="3.83" width="4.00" shape="254.10,72.20 254.10,69.00 252.60,67.50 249.40,67.50 249.53,68.94 249.92,70.11 250.58,71.03 251.49,71.68 252.66,72.07"/>
    </edge>
    <edge id=":B_EW_1_w3" function="walkingarea">
        <lane id=":B_EW_1_w3_0" index="0" allow="pedestrian" speed="1.00" length="3.83" width="4.00" shape="236.60,67.50 233.40,67.50 231.90,69.00 231.90,72.20 233.34,72.07 234.51,71.68 235.43,71.03 236.08,70.11 236.47,68.94"/>
    </edge>
    <edge id=":B_EW_2_0" function="internal">
        <lane id=":B_EW_2_0_0" index="0" disallow="bus tram bicycle pedestrian" speed="8.65" length="11.38" shape="461.20,102.50 462.60,95.27 464.40,91.68"/>
    </edge>
    <edge id=":B_EW_2_1" function="internal">
        <lane id=":B_EW_2_1_0" index="0" disallow="bus tram bicycle pedestrian" speed="7.64" length="8.35" shape="461.20,102.50 460.81,98.34 459.62,95.38 458.90,94.72"/>
    </edge>
    <edge id=":B_EW_2_2" function="internal">
        <lane id=":B_EW_2_2_0" index="0" disallow="bus tram bicycle pedestrian" speed="6.15" length="35.00" shape="461.20,102.50 461.20,67.50"/>
    </edge>
    <edge id=":B_EW_2_3" function="internal">
        <lane id=":B_EW_2_3_0" index="0" disallow="bus tram bicycle pedestrian" speed="8.65" length="11.99" shape="461.20,102.50 462.69,94.77 464.40,91.03"/>
    </edge>
    <edge id=":B_EW_2_4" function="internal">
        <lane id=":B_EW_2_4_0" index="0" allow="bicycle" speed="8.65" length="19.28" shape="464.40,102.50 465.63,94.27 468.73,84.82 469.20,83.92"/>
    </edge>
    <edge id=":B_EW_2_5" function="internal">
        <lane id=":B_EW_2_5_0" index="0" allow="bicycle" speed="7.64" length="4.32" shape="464.40,102.50 463.81,99.74 462.80,98.63"/>
    </edge>
    <edge id=":B_EW_2_6" function="internal">
        <lane id=":B_EW_2_6_0" index="0" allow="bicycle" speed="6.15" length="35.00" shape="464.40,102.50 464.40,67.50"/>
    </edge>
    <edge id=":B_EW_2_30" function="internal">
        <lane id=":B_EW_2_30_0" index="0" disallow="bus tram bicycle pedestrian" speed="8.65" length="17.84" shape="464.40,91.68 466.25,88.02 471.35,82.43 477.10,80.20"/>
    </edge>
    <edge id=":B_EW_2_31" function="internal">
        <lane id=":B_EW_2_31_0" index="0" disallow="bus tram bicycle pedestrian" speed="7.64" length="4.50" shape="458.90,94.72 457.66,93.59 454.90,93.00"/>
    </edge>
    <edge id=":B_EW_2_32" function="internal">
        <lane id=":B_EW_2_32_0" index="0" disallow="bus tram bicycle pedestrian" speed="8.65" length="19.60" shape="464.40,91.03 466.50,86.42 471.64,79.73 477.10,77.00"/>
    </edge>
    <edge id=":B_EW_2_33" function="internal">
        <lane id=":B_EW_2_33_0" index="0" allow="bicycle" speed="8.65" length="13.14" shape="469.20,83.92 472.84,77.03 477.10,73.80"/>
    </edge>
    <edge id=":B_EW_2_34" function="internal">
        <lane id=":B_EW_2_34_0" index="0" allow="bicycle" speed="7.64" length="8.53" shape="462.80,98.63 462.02,97.77 459.06,96.59 454.90,96.20"/>
    </edge>
    <edge id=":B_EW_2_7" function="internal">
        <lane id=":B_EW_2_7_0" index="0" allow="bicycle" speed="8.65" length="8.14" shape="477.10,96.20 472.84,92.97 471.54,90.50"/>
    </edge>
    <edge id=":B_EW_2_8" function="internal">
        <lane id=":B_EW_2_8_0" index="0" allow="bicycle" speed="7.64" length="8.35" shape="477.10,96.20 472.94,96.59 469.98,97.78 469.32,98.50"/>
    </edge>
    <edge id=":B_EW_2_9" function="internal">
        <lane id=":B_EW_2_9_0" index="0" allow="bicycle" speed="11.15" length="22.20" shape="477.10,96.20 454.90,96.20"/>
        <lane id=":B_EW_2_9_1" index="1" disallow="bus tram bicycle pedestrian" speed="11.15" length="22.20" shape="477.10,93.00 454.90,93.00"/>
    </edge>
    <edge id=":B_EW_2_11" function="internal">
        <lane id=":B_EW_2_11_0" index="0" disallow="bus tram bicycle pedestrian" speed="7.64" length="8.83" shape="477.10,93.00 474.34,93.59 472.38,95.38 471.19,98.34 471.18,98.50"/>
    </edge>
    <edge id=":B_EW_2_12" function="internal">
        <lane id=":B_EW_2_12_0" index="0" disallow="bus tram bicycle pedestrian" speed="8.65" length="7.83" shape="477.10,89.80 471.35,87.57 470.23,86.34"/>
    </edge>
    <edge id=":B_EW_2_13" function="internal">
        <lane id=":B_EW_2_13_0" index="0" disallow="bus tram bicycle pedestrian" speed="11.15" length="22.20" shape="477.10,89.80 454.90,89.80"/>
        <lane id=":B_EW_2_13_1" index="1" allow="bus tram" speed="11.15" length="22.20" shape="477.10,86.60 454.90,86.60"/>
    </edge>
    <edge id=":B_EW_2_35" function="internal">
        <lane id=":B_EW_2_35_0" index="0" allow="bicycle" speed="8.65" length="24.28" shape="471.54,90.50 468.73,85.18 465.63,75.73 464.40,67.50"/>
    </edge>
    <edge id=":B_EW_2_36" function="internal">
        <lane id=":B_EW_2_36_0" index="0" allow="bicycle" speed="7.64" length="4.50" shape="469.32,98.50 468.19,99.74 467.60,102.50"/>
    </edge>
    <edge id=":B_EW_2_37" function="internal">
        <lane id=":B_EW_2_37_0" index="0" disallow="bus tram bicycle pedestrian" speed="7.64" length="4.02" shape="471.18,98.50 470.80,102.50"/>
    </edge>
    <edge id=":B_EW_2_38" function="internal">
        <lane id=":B_EW_2_38_0" index="0" disallow="bus tram bicycle pedestrian" speed="8.65" length="21.39" shape="470.23,86.34 466.25,81.98 462.60,74.73 461.20,67.50"/>
    </edge>
    <edge id=":B_EW_2_15" function="internal">
        <lane id=":B_EW_2_15_0" index="0" disallow="bus tram bicycle pedestrian" speed="8.65" length="11.38" shape="470.80,67.50 469.40,74.73 467.60,78.32"/>
    </edge>
    <edge id=":B_EW_2_16" function="internal">
        <lane id=":B_EW_2_16_0" index="0" disallow="bus tram bicycle pedestrian" speed="7.64" length="8.35" shape="470.80,67.50 471.19,71.66 472.38,74.63 473.10,75.28"/>
    </edge>
    <edge id=":B_EW_2_17" function="internal">
        <lane id=":B_EW_2_17_0" index="0" disallow="bus tram bicycle pedestrian" speed="6.15" length="35.00" shape="470.80,67.50 470.80,102.50"/>
    </edge>
    <edge id=":B_EW_2_18" function="internal">
        <lane id=":B_EW_2_18_0" index="0" disallow="bus tram bicycle pedestrian" speed="8.65" length="11.99" shape="470.80,67.50 469.31,75.23 467.60,78.97"/>
    </edge>
    <edge id=":B_EW_2_19" function="internal">
        <lane id=":B_EW_2_19_0" index="0" allow="bicycle" speed="8.65" length="19.28" shape="467.60,67.50 466.37,75.73 463.27,85.18 462.80,86.08"/>
    </edge>
    <edge id=":B_EW_2_20" function="internal">
        <lane id=":B_EW_2_20_0" index="0" allow="bicycle" speed="7.64" length="4.32" shape="467.60,67.50 468.19,70.26 469.20,71.37"/>
    </edge>
    <edge id=":B_EW_2_21" function="internal">
        <lane id=":B_EW_2_21_0" index="0" allow="bicycle" speed="6.15" length="35.00" shape="467.60,67.50 467.60,102.50"/>
    </edge>
    <edge id=":B_EW_2_39" function="internal">
        <lane id=":B_EW_2_39_0" index="0" disallow="bus tram bicycle pedestrian" speed="8.65" length="17.84" shape="467.60,78.32 465.75,81.98 460.65,87.57 454.90,89.80"/>
    </edge>
    <edge id=":B_EW_2_40" function="internal">
        <lane id=":B_EW_2_40_0" index="0" disallow="bus tram bicycle pedestrian" speed="7.64" length="4.50" shape="473.10,75.28 474.34,76.41 477.10,77.00"/>
    </edge>
    <edge id=":B_EW_2_41" function="internal">
        <lane id=":B_EW_2_41_0" index="0" disallow="bus tram bicycle pedestrian" speed="8.65" length="19.60" shape="467.60,78.97 465.50,83.58 460.36,90.27 454.90,93.00"/>
    </edge>
    <edge id=":B_EW_2_42" function="internal">
        <lane id=":B_EW_2_42_0" index="0" allow="bicycle" speed="8.65" length="13.14" shape="462.80,86.08 459.16,92.97 454.90,96.20"/>
    </edge>
    <edge id=":B_EW_2_43" function="internal">
        <lane id=":B_EW_2_43_0" index="0" allow="bicycle" speed="7.64" length="8.53" shape="469.20,71.37 469.98,72.23 472.94,73.41 477.10,73.80"/>
    </edge>
    <edge id=":B_EW_2_22" function="internal">
        <lane id=":B_EW_2_22_0" index="0" allow="bicycle" speed="8.65" length="8.14" shape="454.90,73.80 459.16,77.03 460.46,79.50"/>
    </edge>
    <edge id=":B_EW_2_23" function="internal">
        <lane id=":B_EW_2_23_0" index="0" allow="bicycle" speed="7.64" length="8.35" shape="454.90,73.80 459.06,73.41 462.02,72.22 462.68,71.50"/>
    </edge>
    <edge id=":B_EW_2_24" function="internal">
        <lane id=":B_EW_2_24_0" index="0" allow="bicycle" speed="11.15" length="22.20" shape="454.90,73.80 477.10,73.80"/>
        <lane id=":B_EW_2_24_1" index="1" disallow="bus tram bicycle pedestrian" speed="11.15" length="22.20" shape="454.90,77.00 477.10,77.00"/>
    </edge>
    <edge id=":B_EW_2_26" function="internal">
        <lane id=":B_EW_2_26_0" index="0" disallow="bus tram bicycle pedestrian" speed="7.64" length="8.83" shape="454.90,77.00 457.66,76.41 459.62,74.62 460.81,71.66 460.82,71.50"/>
    </edge>
    <edge id=":B_EW_2_27" function="internal">
        <lane id=":B_EW_2_27_0" index="0" disallow="bus tram bicycle pedestrian" speed="8.65" length="7.83" shape="454.90,80.20 460.65,82.43 461.77,83.66"/>
    </edge>
    <edge id=":B_EW_2_28" function="internal">
        <lane id=":B_EW_2_28_0" index="0" disallow="bus tram bicycle pedestrian" speed="11.15" length="22.20" shape="454.90,80.20 477.10,80.20"/>
        <lane id=":B_EW_2_28_1" index="1" allow="bus tram" speed="11.15" length="22.20" shape="454.90,83.40 477.10,83.40"/>
    </edge>
    <edge id=":B_EW_2_44" function="internal">
        <lane id=":B_EW_2_44_0" index="0" allow="bicycle" speed="8.65" length="24.28" shape="460.46,79.50 463.27,84.82 466.37,94.27 467.60,102.50"/>
    </edge>
    <edge id=":B_EW_2_45" function="internal">
        <lane id=":B_EW_2_45_0" index="0" allow="bicycle" speed="7.64" length="4.50" shape="462.68,71.50 463.81,70.26 464.40,67.50"/>
    </edge>
    <edge id=":B_EW_2_46" function="internal">
        <lane id=":B_EW_2_46_0" index="0" disallow="bus tram bicycle pedestrian" speed="7.64" length="4.02" shape="460.82,71.50 461.20,67.50"/>
    </edge>
    <edge id=":B_EW_2_47" function="internal">
        <lane id=":B_EW_2_47_0" index="0" disallow="bus tram bicycle pedestrian" speed="8.65" length="21.39" shape="461.77,83.66 465.75,88.02 469.40,95.27 470.80,102.50"/>
    </edge>
    <edge id=":B_EW_2_c0" function="crossing" crossingEdges="a2_ns_43 a2_ns_34">
        <lane id=":B_EW_2_c0_0" index="0" allow="pedestrian" speed="1.00" length="12.80" width="4.00" shape="472.40,100.50 459.60,100.50"/>
    </edge>
    <edge id=":B_EW_2_c1" function="crossing" crossingEdges="b_ew_23 b_ew_32">
        <lane id=":B_EW_2_c1_0" index="0" allow="pedestrian" speed="1.00" length="25.60" width="4.00" shape="475.10,72.20 475.10,97.80"/>
    </edge>
    <edge id=":B_EW_2_c2" function="crossing" crossingEdges="a2_ns_45 a2_ns_54">
        <lane id=":B_EW_2_c2_0" index="0" allow="pedestrian" speed="1.00" length="12.80" width="4.00" shape="459.60,69.50 472.40,69.50"/>
    </edge>
    <edge id=":B_EW_2_c3" function="crossing" crossingEdges="b_ew_21 b_ew_12">
        <lane id=":B_EW_2_c3_0" index="0" allow="pedestrian" speed="1.00" length="25.60" width="4.00" shape="456.90,97.80 456.90,72.20"/>
    </edge>
    <edge id=":B_EW_2_w0" function="walkingarea">
        <lane id=":B_EW_2_w0_0" index="0" allow="pedestrian" speed="1.00" length="3.83" width="4.00" shape="454.90,97.80 454.90,101.00 456.40,102.50 459.60,102.50 459.47,101.06 459.08,99.89 458.42,98.97 457.51,98.32 456.34,97.93"/>
    </edge>
    <edge id=":B_EW_2_w1" function="walkingarea">
        <lane id=":B_EW_2_w1_0" index="0" allow="pedestrian" speed="1.00" length="3.83" width="4.00" shape="472.40,102.50 475.60,102.50 477.10,101.00 477.10,97.80 475.66,97.93 474.49,98.32 473.58,98.97 472.92,99.89 472.53,101.06"/>
    </edge>
    <edge id=":B_EW_2_w2" function="walkingarea">
        <lane id=":B_EW_2_w2_0" index="0" allow="pedestrian" speed="1.00" length="3.83" width="4.00" shape="477.10,72.20 477.10,69.00 475.60,67.50 472.40,67.50 472.53,68.94 472.92,70.11 473.58,71.03 474.49,71.68 475.66,72.07"/>
    </edge>
    <edge id=":B_EW_2_w3" function="walkingarea">
        <lane id=":B_EW_2_w3_0" index="0" allow="pedestrian" speed="1.00" length="3.83" width="4.00" shape="459.60,67.50 456.40,67.50 454.90,69.00 454.90,72.20 456.34,72.07 457.51,71.68 458.42,71.03 459.08,70.11 459.47,68.94"/>
    </edge>
    <edge id=":B_EW_3_0" function="internal">
        <lane id=":B_EW_3_0_0" index="0" disallow="bus tram bicycle pedestrian" speed="8.65" length="11.38" shape="670.20,102.50 671.60,95.27 673.40,91.68"/>
    </edge>
    <edge id=":B_EW_3_1" function="internal">
        <lane id=":B_EW_3_1_0" index="0" disallow="bus tram bicycle pedestrian" speed="7.64" length="8.35" shape="670.20,102.50 669.81,98.34 668.62,95.38 667.90,94.72"/>
    </edge>
    <edge id=":B_EW_3_2" function="internal">
        <lane id=":B_EW_3_2_0" index="0" disallow="bus tram bicycle pedestrian" speed="6.15" length="35.00" shape="670.20,102.50 670.20,67.50"/>
    </edge>
    <edge id=":B_EW_3_3" function="internal">
        <lane id=":B_EW_3_3_0" index="0" disallow="bus tram bicycle pedestrian" speed="8.65" length="11.99" shape="670.20,102.50 671.69,94.77 673.40,91.03"/>
    </edge>
    <edge id=":B_EW_3_4" function="internal">
        <lane id=":B_EW_3_4_0" index="0" allow="bicycle" speed="8.65" length="19.28" shape="673.40,102.50 674.63,94.27 677.73,84.82 678.20,83.92"/>
    </edge>
    <edge id=":B_EW_3_5" function="internal">
        <lane id=":B_EW_3_5_0" index="0" allow="bicycle" speed="7.64" length="4.32" shape="673.40,102.50 672.81,99.74 671.80,98.63"/>
    </edge>
    <edge id=":B_EW_3_6" function="internal">
        <lane id=":B_EW_3_6_0" index="0" allow="bicycle" speed="6.15" length="35.00" shape="673.40,102.50 673.40,67.50"/>
    </edge>
    <edge id=":B_EW_3_30" function="internal">
        <lane id=":B_EW_3_30_0" index="0" disallow="bus tram bicycle pedestrian" speed="8.65" length="17.84" shape="673.40,91.68 675.25,88.02 680.35,82.43 686.10,80.20"/>
    </edge>
    <edge id=":B_EW_3_31" function="internal">
        <lane id=":B_EW_3_31_0" index="0" disallow="bus tram bicycle pedestrian" speed="7.64" length="4.50" shape="667.90,94.72 666.66,93.59 663.90,93.00"/>
    </edge>
    <edge id=":B_EW_3_32" function="internal">
        <lane id=":B_EW_3_32_0" index="0" disallow="bus tram bicycle pedestrian" speed="8.65" length="19.60" shape="673.40,91.03 675.50,86.42 680.64,79.73 686.10,77.00"/>
    </edge>
    <edge id=":B_EW_3_33" function="internal">
        <lane id=":B_EW_3_33_0" index="0" allow="bicycle" speed="8.65" length="13.14" shape="678.20,83.92 681.84,77.03 686.10,73.80"/>
    </edge>
    <edge id=":B_EW_3_34" function="internal">
        <lane id=":B_EW_3_34_0" index="0" allow="bicycle" speed="7.64" length="8.53" shape="671.80,98.63 671.02,97.77 668.06,96.59 663.90,96.20"/>
    </edge>
    <edge id=":B_EW_3_7" function="internal">
        <lane id=":B_EW_3_7_0" index="0" allow="bicycle" speed="8.65" length="8.14" shape="686.10,96.20 681.84,92.97 680.54,90.50"/>
    </edge>
    <edge id=":B_EW_3_8" function="internal">
        <lane id=":B_EW_3_8_0" index="0" allow="bicycle" speed="7.64" length="8.35" shape="686.10,96.20 681.94,96.59 678.98,97.78 678.32,98.50"/>
    </edge>
    <edge id=":B_EW_3_9" function="internal">
        <lane id=":B_EW_3_9_0" index="0" allow="bicycle" speed="11.15" length="22.20" shape="686.10,96.20 663.90,96.20"/>