<?xml version="1.0" encoding="UTF-8"?>

<!-- generated on Thu Aug 15 18:28:58 2019 by Eclipse SUMO netedit Version 1.2.0
<configuration xmlns:xsi="http://www.w3.org/2001/XMLSchema-instance" xsi:noNamespaceSchemaLocation="http://sumo.dlr.de/xsd/netconvertConfiguration.xsd">

    <input>
        <sumo-net-file value="/Users/joyce@intern.sidewalklabs.com/Documents/sumo-test/toronto/toronto-netedit.net.xml"/>
    </input>

    <output>
        <output-file value="/Users/joyce@intern.sidewalklabs.com/Documents/sumo-test/toronto/toronto-netedit.net.xml"/>
        <plain-output-prefix value="/Users/joyce@intern.sidewalklabs.com/Documents/sumo-test/toronto/toronto-netedit"/>
    </output>

    <processing>
        <geometry.max-grade.fix value="false"/>
        <offset.disable-normalization value="true"/>
        <lefthand value="false"/>
    </processing>

    <junctions>
        <no-internal-links value="false"/>
        <no-turnarounds value="true"/>
        <junctions.corner-detail value="5"/>
        <junctions.limit-turn-speed value="5.5"/>
        <rectangular-lane-cut value="false"/>
    </junctions>

    <pedestrian>
        <walkingareas value="true"/>
    </pedestrian>

</configuration>
-->

<types version="1.1" xmlns:xsi="http://www.w3.org/2001/XMLSchema-instance" xsi:noNamespaceSchemaLocation="http://sumo.dlr.de/xsd/types_file.xsd">
    <type id="local" numLanes="3" speed="6.7"/> <!-- 15mph, note this is one-way b/c 2 lanes are for sidewalk space -->
    <type id="collector" numLanes="2" speed="11.15"/> <!-- 25mph -->
    <type id="minor_arterial" numLanes="3" speed="15.6"/> <!-- 35mph -->
    <type id="major_arterial" numLanes="4" speed="17.8"/> <!-- 40mph -->
</types>
