<routes>
    <vType id="car" accel="1.5" decel="4.5" vClass="passenger"/>
    <vType id="ped" accel="1" decel="1" vClass="pedestrian"/>
    <vType id="bike" accel="1" decel="2" maxSpeed="6.0" vClass="bicycle"/>
    <vType id="tram" accel="4" decel="6" vClass="tram" />
</routes>
